OR |EUMAEUS] HAS ALREADY KILLED HIM OR HE HAS FALLEN IN YOUR WAY WHEN YOU WERE RAGING ABOUT THE COURT |MEDON] CAUGHT THESE WORDS OF |TELEMACHUS] FOR HE WAS CROUCHING UNDER A SEAT